src/trunk/dynamics/Two_Areas_PSS_E/Benchmark_4ger_33_2015.raw
0,   100.00,  32, 0, 1, 60.00     / PSS(R)E 32 RAW created by rawd32  MON, JUN 16 2014  13:46
IEEE BENCHMARK SYSTEM VII
HTTP://WWW.SEL.EESC.USP.BR/IEEE/
     1,'GEN G1      ',  20.0000,2,   1,   1,   1,1.03000,  20.0702
     2,'GEN G2      ',  20.0000,2,   1,   1,   1,1.01000,  10.3059
     3,'GEN G3      ',  20.0000,3,   2,   1,   1,1.03000,  -7.0000
     4,'GEN G4      ',  20.0000,2,   2,   1,   1,1.01000, -17.1919
     5,'G1          ', 230.0000,1,   1,   1,   1,1.00646,  13.6083
     6,'G2          ', 230.0000,1,   1,   1,   1,0.97813,   3.5238
     7,'LOAD A      ', 230.0000,1,   1,   1,   1,0.96102,  -4.8853
     8,'MID POINT   ', 230.0000,1,   1,   1,   1,0.94862, -18.7550
     9,'LOAD B      ', 230.0000,1,   2,   1,   1,0.97137, -32.3521
    10,'G4          ', 230.0000,1,   2,   1,   1,0.98347, -23.9370
    11,'G3          ', 230.0000,1,   2,   1,   1,1.00826, -13.6270
 0 /End of Bus data, Begin Load data
     7,'1 ',1,   1,   1,   967.000,   100.000,     0.000,     0.000,     0.000,     0.000,   1,1
     9,'1 ',1,   2,   1,  1767.000,   100.000,     0.000,     0.000,     0.000,     0.000,   1,1
 0 /End of Load data, Begin Fixed shunt data
     7,'1 ',0,     0.000,   200.000
     9,'1 ',0,     0.000,   350.000
 0 /End of Fixed shunt data, Begin Generator data
     1,'1 ',   700.000,   185.003,   474.000,  -200.000,1.03000,     0,   900.000, 2.50000E-3, 2.50000E-1, 0.00000E+0, 0.00000E+0,1.00000,1,  100.0,   765.000,     0.000,   1,1.0000
     2,'1 ',   700.000,   234.581,   474.000,  -200.000,1.01000,     0,   900.000, 2.50000E-3, 2.50000E-1, 0.00000E+0, 0.00000E+0,1.00000,1,  100.0,   765.000,     0.000,   1,1.0000
     3,'1 ',   719.091,   175.997,   474.000,  -200.000,1.03000,     0,   900.000, 2.50000E-3, 2.50000E-1, 0.00000E+0, 0.00000E+0,1.00000,1,  100.0,   765.000,     0.000,   1,1.0000
     4,'1 ',   700.000,   202.046,   474.000,  -200.000,1.01000,     0,   900.000, 2.50000E-3, 2.50000E-1, 0.00000E+0, 0.00000E+0,1.00000,1,  100.0,   765.000,     0.000,   1,1.0000
 0 /End of Generator data, Begin Branch data
     5,      6,'1 ', 5.00000E-3, 5.00000E-2,   0.02187,  750.00,  750.00,    0.00,  0.00000,  0.00000,  0.00000,  0.00000,1,1,  25.00,   1,1.0000
     5,      6,'2 ', 5.00000E-3, 5.00000E-2,   0.02187,  750.00,  750.00,    0.00,  0.00000,  0.00000,  0.00000,  0.00000,1,1,  25.00,   1,1.0000
     6,      7,'1 ', 3.00000E-3, 3.00000E-2,   0.00583,  700.00,  700.00,    0.00,  0.00000,  0.00000,  0.00000,  0.00000,1,1,  10.00,   1,1.0000
     6,      7,'2 ', 3.00000E-3, 3.00000E-2,   0.00583,  700.00,  700.00,    0.00,  0.00000,  0.00000,  0.00000,  0.00000,1,1,  10.00,   1,1.0000
     6,      7,'3 ', 3.00000E-3, 3.00000E-2,   0.00583,  700.00,  700.00,    0.00,  0.00000,  0.00000,  0.00000,  0.00000,1,1,  10.00,   1,1.0000
     7,      8,'1 ', 1.10000E-2, 1.10000E-1,   0.19250,  400.00,  400.00,    0.00,  0.00000,  0.00000,  0.00000,  0.00000,1,1, 110.00,   1,1.0000
     7,      8,'2 ', 1.10000E-2, 1.10000E-1,   0.19250,  400.00,  400.00,    0.00,  0.00000,  0.00000,  0.00000,  0.00000,1,1, 110.00,   1,1.0000
     8,      9,'1 ', 1.10000E-2, 1.10000E-1,   0.19250,  400.00,  400.00,    0.00,  0.00000,  0.00000,  0.00000,  0.00000,1,1, 110.00,   1,1.0000
     8,      9,'2 ', 1.10000E-2, 1.10000E-1,   0.19250,  400.00,  400.00,    0.00,  0.00000,  0.00000,  0.00000,  0.00000,1,1, 110.00,   1,1.0000
     9,     10,'1 ', 3.00000E-3, 3.00000E-2,   0.00583,  700.00,  700.00,    0.00,  0.00000,  0.00000,  0.00000,  0.00000,1,1,  10.00,   1,1.0000
     9,     10,'2 ', 3.00000E-3, 3.00000E-2,   0.00583,  700.00,  700.00,    0.00,  0.00000,  0.00000,  0.00000,  0.00000,1,1,  10.00,   1,1.0000
     9,     10,'3 ', 3.00000E-3, 3.00000E-2,   0.00583,  700.00,  700.00,    0.00,  0.00000,  0.00000,  0.00000,  0.00000,1,1,  10.00,   1,1.0000
    10,     11,'1 ', 5.00000E-3, 5.00000E-2,   0.02187,  750.00,  750.00,    0.00,  0.00000,  0.00000,  0.00000,  0.00000,1,1,  25.00,   1,1.0000
    10,     11,'2 ', 5.00000E-3, 5.00000E-2,   0.02187,  750.00,  750.00,    0.00,  0.00000,  0.00000,  0.00000,  0.00000,1,1,  25.00,   1,1.0000
 0 /End of Branch data, Begin Transformer data
     5,     1,     0,'1 ',1,2,1, 0.00000E+0, 0.00000E+0,1,'G1 STEP UP  ',1,   1,1.0000
 0.00000E+0, 1.50000E-1,   900.00
1.00000, 230.000,   0.000,   900.00,     0.00,     0.00, 0,      0, 1.10000, 0.90000, 1.10000, 0.90000,  33, 0, 0.00000, 0.00000,  0.000
1.00000,  20.000
     6,     2,     0,'1 ',1,2,1, 0.00000E+0, 0.00000E+0,1,'G2 STEP UP  ',1,   1,1.0000
 0.00000E+0, 1.50000E-1,   900.00
1.00000, 230.000,   0.000,   900.00,     0.00,     0.00, 0,      0, 1.10000, 0.90000, 1.10000, 0.90000,  33, 0, 0.00000, 0.00000,  0.000
1.00000,  20.000
    11,     3,     0,'1 ',1,2,1, 0.00000E+0, 0.00000E+0,1,'G3 STEP UP  ',1,   1,1.0000
 0.00000E+0, 1.50000E-1,   900.00
1.00000,   0.000,   0.000,   900.00,     0.00,     0.00, 0,      0, 1.10000, 0.90000, 1.10000, 0.90000,  33, 0, 0.00000, 0.00000,  0.000
1.00000,   0.000
    10,     4,     0,'1 ',1,2,1, 0.00000E+0, 0.00000E+0,1,'G4 STEP UP  ',1,   1,1.0000
 0.00000E+0, 1.50000E-1,   900.00
1.00000,   0.000,   0.000,   900.00,     0.00,     0.00, 0,      0, 1.10000, 0.90000, 1.10000, 0.90000,  33, 0, 0.00000, 0.00000,  0.000
1.00000,   0.000
 0 /End of Transformer data, Begin Area interchange data
   1,     1,   400.000,     5.000,'LEFT        '
   2,     3,  -400.000,     5.000,'RIGHT       '
 0 /End of Area interchange data, Begin Two-terminal dc line data
 0 /End of Two-terminal dc line data, Begin VSC dc line data
 0 /End of VSC dc line data, Begin Impedance correction table data
 0 /End of Impedance correction table data, Begin Multi-terminal dc line data
 0 /End of Multi-terminal dc line data, Begin Multi-section line data
 0 /End of Multi-section line data, Begin Zone data
 0 /End of Zone data, Begin Inter-area transfer data
 0 /End of Inter-area transfer data, Begin Owner data
 0 /End of Owner data, Begin FACTS device data
 0 /End of FACTS device data, Begin Switched shunt data
 0 /End of Switched shunt data, Begin GNE device data
 0 /End of GNE device data
Q
